YYYY MM DD HH    DURATION(hhhh) #RECORDS
YYYY MM DD HH MM DURATION(hhmm) LAT LON HGT(m) RATE(/h) AREA(m2) HEAT(w)
1981 02 04 06 9999 8
1981 02 04 06 00 1100 25.0 -123.0 0.0 2.4 40000 120493 #PM_WF
1981 02 04 06 00 0600 25.0 -123.0 0.0 0.0 40000 120493 #PM_RX
1981 02 08 06 00 1100 25.1 -123.3 0.0 5.4 40000 150493 #PM_WF
1981 02 08 06 00 0600 25.1 -123.3 0.0 0.0 40000 150493 #PM_RX
1981 02 11 06 00 1100 24.5 -123.2 0.0 0.0 40000 120093 #PM_WF
1981 02 11 06 00 0600 24.5 -123.2 0.0 9.7 40000 120093 #PM_RX
1981 02 13 06 00 1100 25.9 -122.0 0.0 0.0 40000 155493 #PM_WF
1981 02 13 06 00 0600 25.9 -122.0 0.0 3.3 40000 155493 #PM_RX
